%mem=128GB
%nprocshared=16
%chk=OPS1.chk
# opt b3lyp/6-31g(d) density=current empiricaldispersion=gd3bj

Title Card Required

0 1
 N                 -2.40658493    0.00008098    3.89532727
 C                 -1.98025718   -0.01505180    2.81723560
 C                 -1.45562251   -0.01347997    1.47155072
 C                 -2.29071220    0.32977085    0.38625930
 N                 -3.67897155    0.52824040    0.62038192
 C                 -4.32050994    1.75681535    0.56906647
 C                 -3.82847406    3.05298475    0.32249335
 C                 -4.73252810    4.11843006    0.34369108
 C                 -6.08024182    3.90644051    0.61076777
 C                 -6.55808208    2.61851176    0.86980859
 C                 -5.66721101    1.52425285    0.85446328
 C                 -5.82873573    0.12255213    1.08294500
 C                 -6.93954919   -0.68618897    1.40439148
 C                 -6.77330095   -2.06599750    1.55507056
 C                 -5.52260475   -2.64862413    1.38504097
 C                 -4.40578571   -1.87143256    1.06626248
 C                 -4.57871641   -0.48042030    0.93141392
 C                 -1.78846630    0.48213586   -0.92451892
 C                 -2.69653492    0.69173337   -2.02819757
 N                 -3.43378135    0.84491022   -2.90970789
 C                 -0.40435781    0.30847946   -1.14521981
 N                  0.08920545    0.44539769   -2.47774360
 C                  0.11902841    1.63939606   -3.19288671
 C                 -0.30133164    2.94222996   -2.85531648
 C                 -0.08980191    3.97054207   -3.77752460
 C                  0.52915632    3.71934227   -4.99576731
 C                  0.94976247    2.42746598   -5.32303880
 C                  0.74341002    1.36914065   -4.41226929
 C                  1.02732413   -0.02925161   -4.45578253
 C                  1.61429191   -0.86850801   -5.42702551
 C                  1.70162437   -2.24383657   -5.19529317
 C                  1.19800660   -2.79241583   -4.02245854
 C                  0.61226448   -1.98252776   -3.04621146
 C                  0.56620348   -0.59361045   -3.26521862
 C                  0.45470878   -0.06870550   -0.07848027
 N                  1.85040851   -0.28365268   -0.31476084
 C                  2.50161098   -1.50851743   -0.19231014
 C                  2.02104963   -2.79608811    0.11598796
 C                  2.92621611   -3.85891198    0.16526455
 C                  4.27259031   -3.65850410   -0.10732863
 C                  4.74194403   -2.38716440   -0.44657852
 C                  3.84688616   -1.29642753   -0.49853210
 C                  4.00657779    0.08225180   -0.82554336
 C                  5.11932552    0.86003639   -1.21319195
 C                  4.96463692    2.22780323   -1.45115570
 C                  3.72383033    2.83044714   -1.29456628
 C                  2.60923264    2.08256133   -0.90735919
 C                  2.75955941    0.69766870   -0.70048388
 C                 -0.08353908   -0.23827334    1.22568111
 N                  0.75931927   -0.55110861    2.33462808
 C                  1.72361841    0.29403863    2.86700740
 C                  2.06283919    1.62590176    2.56605745
 C                  3.12561751    2.21512070    3.25558470
 C                  3.81762139    1.51200760    4.23384220
 C                  3.44916808    0.20362243    4.55840987
 C                  2.37881003   -0.41356829    3.87608518
 C                  1.73602679   -1.68177625    4.00479094
 C                  1.93853076   -2.78708595    4.85879778
 C                  1.10680172   -3.90559397    4.75851101
 C                  0.08109695   -3.93823008    3.82190941
 C                 -0.13811218   -2.85980158    2.96076822
 C                  0.70059278   -1.73177238    3.06916884
 H                 -2.77903198    3.24022669    0.12138587
 H                 -4.37758940    5.12828317    0.14956296
 H                 -6.76969540    4.74718818    0.62241135
 H                 -7.61198457    2.46426483    1.08382036
 H                 -7.92238072   -0.24143342    1.53299963
 H                 -7.63125150   -2.68603428    1.80370115
 H                 -5.41304427   -3.72474051    1.50098365
 H                 -3.44009998   -2.34610488    0.92839088
 H                 -0.77387385    3.16416973   -1.90448225
 H                 -0.41366809    4.98124589   -3.53907490
 H                  0.68476735    4.53009744   -5.70323199
 H                  1.42762082    2.23946176   -6.28038686
 H                  1.98800273   -0.45107356   -6.35762707
 H                  2.15508829   -2.88790505   -5.94447122
 H                  1.26174351   -3.86603308   -3.86015403
 H                  0.21255048   -2.43140753   -2.14404399
 H                  0.97077544   -2.98038207    0.30949612
 H                  2.57058636   -4.85458826    0.42013839
 H                  4.96588078   -4.49455473   -0.06477877
 H                  5.79434275   -2.24119287   -0.67259680
 H                  6.09616118    0.39817547   -1.32466784
 H                  5.82316020    2.82200280   -1.75329718
 H                  3.61679813    3.89758876   -1.47489307
 H                  1.65578975    2.57877221   -0.76904524
 H                  1.52683437    2.19553792    1.81537828
 H                  3.41559928    3.23690225    3.02120145
 H                  4.64289107    1.98476266    4.76032087
 H                  3.97965113   -0.33015973    5.34172992
 H                  2.73382799   -2.76780959    5.59860218
 H                  1.26297342   -4.75212547    5.42259294
 H                 -0.55941783   -4.81512750    3.75864635
 H                 -0.93614388   -2.91274697    2.22798307

