%mem=128GB
%nprocshared=16
%chk=OPS1.chk
# m062x/6-31g(d) scrf=(solvent=toluene) density=current

Title Card Required

0 1
 N                 -2.92078800   -3.11031900    1.49756300
 C                 -2.33874400   -2.22801100    1.01477300
 C                 -1.62675300   -1.13297000    0.43575900
 C                 -2.33720500   -0.00065800    0.00012300
 N                 -3.73719900   -0.00108600    0.00022100
 C                 -4.55632800    0.85650600    0.75584300
 C                 -4.19436700    1.83908600    1.67305800
 C                 -5.22133300    2.53569000    2.30720300
 C                 -6.56953800    2.25059300    2.03856000
 C                 -6.91989700    1.25329800    1.13211500
 C                 -5.90823900    0.54170700    0.48124800
 C                 -5.90796100   -0.54499000   -0.48081100
 C                 -6.91925600   -1.25710900   -1.13166500
 C                 -6.56838800   -2.25419900   -2.03814000
 C                 -5.22003900   -2.53856700   -2.30682700
 C                 -4.19342900   -1.84143500   -1.67268600
 C                 -4.55588900   -0.85907100   -0.75543500
 C                 -1.62748400    1.13208000   -0.43556000
 C                 -2.34018700    2.22676300   -1.01437200
 N                 -2.92284500    3.10870100   -1.49710000
 C                 -0.21529700    1.15133400   -0.40926200
 N                  0.45049100    2.31255400   -0.82465900
 C                  0.38892400    3.55116300   -0.14635300
 C                 -0.45206700    3.95374200    0.88757000
 C                 -0.25216100    5.22497200    1.42538800
 C                  0.76174800    6.06807700    0.94667200
 C                  1.60282200    5.65250200   -0.08283400
 C                  1.42307900    4.38279400   -0.63616000
 C                  2.12986300    3.63453300   -1.65875300
 C                  3.21404500    3.92922800   -2.48938300
 C                  3.65160500    2.96550800   -3.39462900
 C                  2.99990100    1.72628300   -3.49456200
 C                  1.90800500    1.41731600   -2.68640600
 C                  1.50753700    2.36919000   -1.75472300
 C                  0.49879000    0.00014300   -0.00010600
 N                  1.90161800    0.00058400   -0.00029600
 C                  2.72263000   -0.87718600   -0.73068700
 C                  2.36659600   -1.87274800   -1.63552600
 C                  3.39423500   -2.59428700   -2.24045400
 C                  4.74135400   -2.31248800   -1.96593300
 C                  5.08802800   -1.28981600   -1.08590100
 C                  4.07465100   -0.55867900   -0.46140200
 C                  4.07445900    0.55962700    0.46196600
 C                  5.08759400    1.29052300    1.08713700
 C                  4.74058500    2.31314800    1.96708900
 C                  3.39334900    2.59516700    2.24081500
 C                  2.36593600    1.87387600    1.63520500
 C                  2.72232600    0.87829100    0.73052800
 C                 -0.21456700   -1.15144300    0.40926500
 N                  0.45186200   -2.31225500    0.82483400
 C                  1.50933200   -2.36796000    1.75448600
 C                  1.90911900   -1.41581300    2.68617700
 C                  3.00172200   -1.72369400    3.49379300
 C                  3.65474100   -2.96218400    3.39336700
 C                  3.21782600   -3.92625900    2.48818100
 C                  2.13296500   -3.63261800    1.65806900
 C                  1.42657900   -4.38145500    0.63562000
 C                  1.60748900   -5.65086600    0.08200000
 C                  0.76652600   -6.06714100   -0.94731300
 C                 -0.24844700   -5.22503000   -1.42552400
 C                 -0.44953400   -3.95411500   -0.88739600
 C                  0.39139400   -3.55082100    0.14629600
 H                 -3.15379200    2.05157100    1.89454500
 H                 -4.97016400    3.31282100    3.02274700
 H                 -7.34637800    2.81222700    2.54814200
 H                 -7.96370600    1.02621600    0.93572300
 H                 -7.96318000   -1.03058200   -0.93524900
 H                 -7.34494200   -2.81623300   -2.54771700
 H                 -4.96847400   -3.31554300   -3.02239900
 H                 -3.15274800   -2.05335000   -1.89422000
 H                 -1.24074600    3.31295600    1.26451400
 H                 -0.90084700    5.56614300    2.22648600
 H                  0.89015000    7.05345700    1.38391800
 H                  2.39558100    6.30025100   -0.44559800
 H                  3.70629400    4.89539400   -2.42769500
 H                  4.49953300    3.17750300   -4.03873500
 H                  3.34867600    0.98971400   -4.21169300
 H                  1.40263900    0.46392400   -2.77788600
 H                  1.33132600   -2.09397100   -1.86259600
 H                  3.13944300   -3.39098000   -2.93261000
 H                  5.52001000   -2.89317400   -2.45111400
 H                  6.13101700   -1.05928800   -0.88871500
 H                  6.13065800    1.05982500    0.89054400
 H                  5.51905400    2.89363700    2.45280400
 H                  3.13829000    3.39183400    2.93290500
 H                  1.33058300    2.09525900    1.86172100
 H                  1.40274700   -0.46298100    2.77799400
 H                  3.35002700   -0.98683600    4.21085500
 H                  4.50319500   -3.17334300    4.03705500
 H                  3.71110500   -4.89187500    2.42612900
 H                  2.40106100   -6.29783600    0.44438000
 H                  0.89583600   -7.05229800   -1.38479300
 H                 -0.89704600   -5.56675000   -2.22645900
 H                 -1.23904500   -3.31412500   -1.26393500

